ListingGen Pro - Generation Report

Input file: input.csv
Output file: output.csv
Total items processed: 2
Successful titles: 2
Failed titles: 0

A001
Original: Women's winter beanie hat, black
Generated: Black Winter Beanie Hat for Women - Warm Knit Skull Cap
Length: 55
Status: READY

A002
Original: Stainless steel water bottle 1L, blue
Generated: Blue 1L Stainless Steel Water Bottle - Insulated Leakproof Flask
Length: 64
Status: READY
